Circuit: * C:\Users\peanu\Documents\GitHub\S25_36_ECE4806\LTSpice\Transimpedance and Subtraction Circuit\MDE_Transimpedance_Subtraction.asc

Warning: Multiple definitions of model "2scr375p" Type: BJT
Warning: Multiple definitions of model "bc857b" Type: BJT
Warning: Multiple definitions of model "bc847c" Type: BJT
Warning: Multiple definitions of model "bc847b" Type: BJT
Direct Newton iteration failed to find .op point.  (Use ".option noopiter" to skip.)
Starting Gmin stepping
Gmin = 10
Gmin = 1.07374
Gmin = 0.115292
Gmin = 0.0123794
Gmin = 0.00132923
Gmin = 0.000142725
Gmin = 1.5325e-05
Gmin = 1.6455e-06
Gmin = 1.76685e-07
Gmin = 1.89714e-08
vernier = 0.5
vernier = 0.25
vernier = 0.125
Gmin = 4.97323e-09
vernier = 0.0625
vernier = 0.03125
vernier = 0.015625
vernier = 0.0078125
vernier = 0.00390625
vernier = 0.00195312
vernier = 0.000976562
vernier = 0.000488281
Gmin = 0
Gmin stepping failed

Starting source stepping with srcstepmethod=0
Source Step = 3.0303%
Source Step = 33.3333%
Source Step = 63.6364%
Source Step = 93.9394%
Source stepping succeeded in finding the operating point.


Date: Tue Apr 29 11:06:05 2025
Total elapsed time: 2.995 seconds.

tnom = 27
temp = 27
method = modified trap
totiter = 4612
traniter = 2096
tranpoints = 1049
accept = 1049
rejected = 0
matrix size = 289
fillins = 692
solver = Normal
Avg thread counts: 2.9/4.8/4.8/2.9
Matrix Compiler1: 55.23 KB object code size  27.7/12.1/[7.4]
Matrix Compiler2: 34.38 KB object code size  9.1/11.6/[5.3]

