Circuit: * C:\Users\tyler\.git\S25_36_ECE4806\LTSpice\Transimpedance and Subtraction Circuit\MDE_Transimpedance_Subtraction.asc

Direct Newton iteration failed to find .op point.  (Use ".option noopiter" to skip.)
Starting Gmin stepping
Gmin = 10
Gmin = 1.07374
Gmin = 0.115292
Gmin = 0.0123794
Gmin = 0.00132923
Gmin = 0.000142725
Gmin = 1.5325e-005
Gmin = 1.6455e-006
Gmin = 1.76685e-007
Gmin = 1.89714e-008
vernier = 0.5
vernier = 0.25
vernier = 0.125
Gmin = 4.97323e-009
vernier = 0.0625
vernier = 0.03125
vernier = 0.015625
vernier = 0.0078125
vernier = 0.00390625
vernier = 0.00195313
vernier = 0.000976563
vernier = 0.000488281
Gmin = 0
Gmin stepping failed

Starting source stepping with srcstepmethod=0
Source Step = 3.0303%
Source Step = 33.3333%
Source Step = 63.6364%
Source Step = 93.9394%
Source stepping succeeded in finding the operating point.


Date: Sat Feb 22 11:51:22 2025
Total elapsed time: 2.181 seconds.

tnom = 27
temp = 27
method = modified trap
totiter = 4604
traniter = 2088
tranpoints = 1045
accept = 1045
rejected = 0
matrix size = 289
fillins = 646
solver = Normal
Thread vector: 39.5/16.0[5] 6.4/5.0[5] 5.5/3.8[5] 1.2/4.2[1]  2592/500
Matrix Compiler1: 50.45 KB object code size  19.8/7.8/[3.9]
Matrix Compiler2: 33.56 KB object code size  6.7/9.5/[2.2]

